/*--------------------------------*- C++ -*----------------------------------*\
| =========                 |
| \\      /  F ield         | OpenFOAM
|  \\    /   O peration     |
|   \\  /    A nd           |
|    \\/     M anipulation  |
\*---------------------------------------------------------------------------*/

FoamFile
{
    version     2.0;
    format      ascii;
    class       dictionary;
    object      sampleDict;
}

type sets;

libs ("libsampling.so");

interpolationScheme cellPoint;

setFormat csv;

fields
(
    U
    p
);

sets
(
    grid
    {
        type cloud;
        axis xyz;
        points #include "../gridPoints_driver_seegmiller.xyz";
    }
);